PDE 2011  8 23 17 51  4.60  37.9400  -77.9300   6.0 5.9 5.8 VIRGINIA                                
event name:     201108231751A  
time shift:      0.00
half duration:   50.00
latitude:       37.9100
longitude:     -77.9300
depth:          12.0000
P0: 	   100000
